!Opt PBE0 RIJCOSX def2-SD def2-SVP AutoAux SlowConv

%pal
nproc 42
end

%basis
newgto Pa "SARC-DKH-TZVP" end
end

%scf
MaxIter 1000
end

%method
Z_MaxIter 5000
end

* xyz 0 2
  Pa    -0.502778    0.587103  -11.905054
  F      0.017351    2.318639  -10.906702
  F      1.212848    0.253165  -13.026098
  F     -0.859681   -1.158212  -10.818801
  F     -2.243414    1.162185  -12.875785
*