!Opt MP2 DKH-def2-TZVP DKH SARC/J SlowConv

%pal
nproc 42
end

%maxcore 9000

%basis
newgto Th "SARC-DKH-TZVP" end
end

%scf
MaxIter 1000
end

%method
Z_MaxIter 5000
end

* xyz 0 1
  Th    -0.464192    0.657257  -12.040496
  F      0.023076    2.395076  -10.925578
  F      1.386191    0.129398  -12.894321
  F     -0.896286   -1.123267  -10.999691
  F     -2.424464    1.104416  -12.672354
*